#!/bin/sh
SAVEPATH=`pwd`/Config.options
CONFIG_H=`pwd`/include/config.h

INSTPATH=""
EXECUTABLE=`egrep "^EXECUTABLE=" Makefile 2>/dev/null | sed -e 's/^[^=]*[ 	]*=\(.*\)/\1/'`
INSTALLER=`egrep "^INSTALLER=" Makefile 2>/dev/null | sed -e 's/^[^=]*[ 	]*=\(.*\)/\1/'`
LOADER=`egrep "^LOADER=" Makefile 2>/dev/null | sed -e 's/^[^=]*[ 	]*=\(.*\)/\1/'`
MODPATH=`pwd`/`egrep "^MODPATH=" Makefile 2>/dev/null | sed -e 's/^[^=]*[ 	]*=\(.*\)/\1/'`
MAKEFILE=`pwd`/dist/Makefile.`uname`
DMODS=""

if [ -r "$SAVEPATH" ] ; then
	echo "Using save file!"
	. $SAVEPATH
fi

if [ ! -e "$MAKEFILE" ] ; then
	echo "" ;
	echo "Unable to find $MAKEFILE" ;
	echo "" ;
	echo "this means that acidblood" ;
	echo "does not fully support your OS." ;
	echo "Using default options instead" ;
	echo "please email gmack@innerfire.net with the options" ;
	echo "that worked for you"
	echo "so we can fully support your system" 
	echo "" ;
	cp `pwd`/dist/Makefile.default Makefile.inc
else 
	echo "Using ${MAKEFILE}" ;
	cp ${MAKEFILE} Makefile.inc
fi
TMP=`egrep "^MODULES=" Makefile.inc 2>/dev/null | sed -e 's/^[^=]*[ 	]*=\(.*\)/\1/'`
touch Modules.${TMP}

checkpath() {
	IPATH="$1" 

	if [ -z "$IPATH" ] ; then
		IPATH="${2}"
	fi 

        tmp="${IPATH#?}"
        firstchar="${IPATH%$tmp}"

	if [ "$firstchar" != "/"  ] ; then
		if [ "$firstchar" != "~"  ] ; then
			echo "The path is not relative to root"
			echo "The specified path does not begin with \`/\` or \`~\`"
			IPATH=""
			return ;
		fi
	fi
	
	if [ ! -d "$IPATH" ] ; then
		echo "That path doesn't exist" ;
		IPATH=""
		return ;
	fi
	
	return
	
}

IPATH=""
while [ -z "$IPATH" ] ; do
	if [ -d "$INSTPATH" ] ; then
		TM2=${INSTPATH}
	else 	
		TM2=`pwd`
	fi
	echo "Where am I going to install this?" 
	echo -n "[$TM2] => $c"
	read TMP  

	checkpath "$TMP" "$TM2" ;
done

INSTPATH=${IPATH}

cat > $SAVEPATH << _EOF_
INSTPATH=$INSTPATH
_EOF_

if [ ! -e Modules.enabled ] ; then
	echo "Modules are disabled" ;
else 
	for i in $MODPATH/* 
	do
		if [ -e $i/Config ] 
			then
				cd $i
				$i/Config $INSTPATH/bin/modules
				cd -
			fi
	done
fi

cat > $CONFIG_H << _EOF_
/*
	Autogenerated file. Do not edit 
 */
#ifndef 	CONFIG_H
#define 	CONFIG_H
#define INSTPATH 	"$INSTPATH"
#define MODPATH 	"$INSTPATH/bin/modules"
#define EXECUTABLE 	"$EXECUTABLE"
#define USERS 		"${INSTPATH}/conf/${EXECUTABLE}.users"
#define CONFIG 		"${INSTPATH}/conf/${EXECUTABLE}.conf"
#define LOG 		"${INSTPATH}/logs/${EXECUTABLE}.log"
#define DEBUGLOG 	"${INSTPATH}/logs/${EXECUTABLE}_debug.log"
#define PIDFILE 	"${INSTPATH}/run/${EXECUTABLE}.pid"
#define DATADIR 	"${INSTPATH}/data"
#endif 		/* CONFIG_H */
_EOF_

cat > $INSTALLER << _EOF_
#!/bin/sh

# Autogenerated file. Do not edit
echo "Installing ..."

if [ ! -r $INSTPATH/bin ] ; then
	echo Creating ${INSTPATH}/bin 
	mkdir ${INSTPATH}/bin
fi

if [ ! -r $INSTPATH/bin/modules ] ; then
	echo Creating ${INSTPATH}/bin/modules 
	mkdir ${INSTPATH}/bin/modules
fi

if [ -r ${INSTPATH}/bin/${EXECUTABLE} ] ; then
	mv ${INSTPATH}/bin/${EXECUTABLE} ${INSTPATH}/bin/${EXECUTABLE}.old
fi

cp `pwd`/src/${EXECUTABLE} ${INSTPATH}/bin/${EXECUTABLE}

if [ ! -r $INSTPATH/logs ] ; then
	echo Creating ${INSTPATH}/logs 
	mkdir ${INSTPATH}/logs
fi

if [ ! -r $INSTPATH/conf ] ; then
	echo Creating ${INSTPATH}/conf 
	mkdir ${INSTPATH}/conf
fi

if [ ! -r $INSTPATH/conf/${EXECUTABLE}.conf ] ; then
	cp `pwd`/dist/conf.dist $INSTPATH/conf/${EXECUTABLE}.conf
fi

if [ ! -r $INSTPATH/conf/${EXECUTABLE}.users ] ; then
	cp `pwd`/dist/users.dist $INSTPATH/conf/${EXECUTABLE}.users
fi

if [ ! -r $INSTPATH/run ] ; then
	echo Creating ${INSTPATH}/run
	mkdir ${INSTPATH}/run
fi

if [ ! -r $INSTPATH/data ] ; then
	echo Creating ${INSTPATH}/data
	mkdir ${INSTPATH}/data
fi

_EOF_

cat > $LOADER << _EOF_
#!/bin/sh

# Autogenerated file. Do not edit
echo "loading..."

if [ -r $INSTPATH/run/${EXECUTABLE}.pid ] ; then
        kill \`cat $INSTPATH/run/${EXECUTABLE}.pid\`
fi
        ${INSTPATH}/bin/${EXECUTABLE}
	
_EOF_
